Circuit: * Z:\home\osabio\Документы\Радио_555,4013_таймер\Draft1.asc

